*KEYWORD 999999999
$> 
$> Primer16.0 created on: Tue Sep 08 09:15:37 2020
$> LS-DYNA version: R9.0
$> 
$> model title: Optimizer Verification Test Model
$>
$
$ ===============
$ OPTIMIZATION MODEL DESCRIPTION
$ ===============
$
$ Titel: Optimizer Verification Test Model
$
$ Index in Parameter correlates directly to Part ID
$ t_1 up to t_15 are the thickness for the Part 1 up to 15
$
$ For Optimization set the thickness parameters arcording to the design space
$ M_ID_1 up to t_15  are the Index Values for Material IDs
$
$ Steel Material IDs      2xxxx
$ Aluminium Materials IDs 5xxxx
$ Magnesium Materials IDs 6xxxx
$
$
$ With the standard Material Input following vaterials can be selected for following Index:
$
$   Mat_ID_Index       Mat_Name           Yield Strengt                 Typ
$
$
$    2000              DP 300-500              240.0                  Steel
$    2010              CR340-SR hub            358.5                  Steel
$    2030              TWIP 500-980            500.0                  Steel
$    2080              DP 350-600              350.0                  Steel
$    2090              DP 700-1000             700.0                  Steel
$    2250              HF 1050-1500           1050.0                  Steel
$    2600              MS 950-1200             950.0                  Steel
$    2910              Mild 140-270            140.0                  Steel
$
$    5000              AA5182_novelis          120.0              Aluminium
$    5120              al_ac120 A5xxx          196.0              Aluminium
$    5400              AA5182_novelis          120.0              Aluminium
$    5500              Novelis AA6451          230.0              Aluminium
$
$    60000000          AZ31B                                      Magnesium
$
$ ===============
$ PARAMETER cards
$ ===============
$
$> end_saved_comments
$
$
$
$ ===============
$ PARAMETER cards
$ ===============
$
*PARAMETER
$ Dicke Part 1
R t_1            1.0
R t_2            1.0
R t_3            1.0
I M_ID_1        5120
I M_ID_2        5120
I M_ID_3        5120
$
$
$ =============
$ INCLUDE cards
$ =============
$
*INCLUDE
Materials.key
$
*INCLUDE
mesh.key
$
$
$
$ =============
$ CONTROL cards
$ =============
$
*CONTROL_ACCURACY
         0         4         0         0
*CONTROL_BULK_VISCOSITY
       0.0       0.0        -1         0
*CONTROL_CONTACT
       0.0       1.0         0         2         0         0         0         0
         0         0        10         0       0.0         0         0         0
       0.2       0.2       0.0       0.0       0.0       0.0       0.0       0.0
         2         0         0         0         0         0       0.0
         0         0         0       0.0       0.0         0       0.0         0
         1         0         0         0         1                 0.0         0
*CONTROL_CPU
       0.0         0
*CONTROL_ENERGY
         2         2         2         2
*CONTROL_HOURGLASS
         8       0.1
*CONTROL_MPP_IO_NOD3DUMP
*CONTROL_MPP_IO_NOFULL
*CONTROL_OUTPUT
         1         3         0         0       0.0         0         0         0
         0         0         0         0         1       0.0         0         0
*CONTROL_SHELL
      20.0         1         0         0         2         2         1         0
       1.0         0         0         0         0
         0         0         0         0         0       0.0       0.0         0
         1         0         0         0         0         0       0.0         0
*CONTROL_SOLID
         1         0         5         0         0       0.0         0
*CONTROL_SOLUTION
         0         0         1         0
*CONTROL_TERMINATION
    7.0E-2         0       0.2       0.0       0.0         0
*CONTROL_TIMESTEP
       0.0       0.9         0       0.0-5.8856E-7         0         0         0
$
$
$ ==============
$ DATABASE cards
$ ==============
$
*DATABASE_GLSTAT
    1.0E-4         1         0         0
*DATABASE_MATSUM
    1.0E-4         1         0         0
*DATABASE_NODOUT
    1.0E-4         1         0         0       0.0         0
*DATABASE_BINARY_D3PLOT
    1.0E-2         0         0         0         0
*DATABASE_BINARY_D3THDT
    1.0E-2         0
$
*DATABASE_HISTORY_NODE_ID
        14                                                                      
$
$
$ ====================
$ MAT (Material) cards
$ ====================
$
*MAT_RIGID_TITLE
Rigid Impactor Steel
   9000000   7.89E-9  200000.0       0.3       0.0       0.0       0.0          
       1.0       4.0       7.0
         0       0.0       0.0       0.0       0.0       0.0
$
$
$
$ =============
$ SECTION cards
$ =============
$
*SECTION_SHELL
         1         2       0.0         5       0.0       0.0         0         0
&t_1      &t_1      &t_1      &t_1             0.0       0.0       0.0         0
$
         2         2       0.0         5       0.0       0.0         0         0
&t_2      &t_2      &t_2      &t_2             0.0       0.0       0.0         0
$
         3         2       0.0         5       0.0       0.0         0         0
&t_3      &t_3      &t_3      &t_3             0.0       0.0       0.0         0
$
       100         2       0.0         5       0.0       0.0         0         0
       1.0       1.0       1.0       1.0       0.0       0.0       0.0         0
$
$
$
$ ==========
$ PART cards
$ ==========
$
*PART
$HMNAME COMPS       1Part 2
Part 1
         1         1&M_ID_1            0         0         0         0         0
$
*PART
$HMNAME COMPS       2Part 3
Part 2
         2         2&M_ID_2            0         0         0         0         0
$
*PART
$HMNAME COMPS       3Part 4
Part 3
         3         3&M_ID_3            0         0         0         0         0
$
*PART
$HMNAME COMPS     100Part Impactor
Part Impactor
       100       100   9000000         0         0         0         0         0
$
$
$
$ ============
$ DEFINE cards
$ ============
$
$
*DEFINE_BOX_TITLE
Nodes FOR SPCs
         1   -1000.0    1000.0   -1000.0    1000.0      -1.0       1.0
Impactor
         2   -1000.0    1000.0   -1000.0    1000.0     301.0     800.0
Structural Nodes
         3   -1000.0    1000.0   -1000.0    1000.0      -1.0     301.0
$
$
*DEFINE_CURVE_TITLE
Impactor Displacement Curve
$:
$: Cross-reference summary for Load-curve 1008006
$: -----------------------------------------------
$:
$: Boundary Prescribed Motion <No label>: Displacement vs time
$: X axis : Time                       (Units: Time)
$: Y axis : Prescribed displacement    (Units: Displacement)
$:
$: Usage: Transient analysis
$:
   1008006         0       0.0       0.0       0.0       0.0         0         0
                 0.0                 0.0
        1.0000000E-3       -1.0000000E-3
        3.0000000E-3         -0.10000000
        8.0000004E-3         -0.50000000
        9.9999998E-3          -1.0000000
        2.0000000E-2          -10.000000
          0.15000001          -150.00000
           2.0000000          -150.00000
$
$
$
$ ==============
$ BOUNDARY cards
$ ==============
$
*BOUNDARY_PRESCRIBED_MOTION_RIGID
       100         3         2   1008006       0.0         0       0.0       0.0
*BOUNDARY_SPC_SET
         1         0         1         1         1         1         1         1
$
$: Cross-reference summary for SET_NODE 1
$:---------------------------------------
$: SPC <No label>
$
*SET_NODE_GENERAL_TITLE
Lover_Fixed_Nodes_Set
         1       0.0       0.0       0.0       0.0
BOX                1
$
$
$
$ ===============
$ RIGIDWALL cards
$ ===============
$
*RIGIDWALL_PLANAR_ID
         1Lower Contact Surface                                                 
         0         0         0       0.0       0.0       0.0       0.0
       0.0       0.0      -1.0       0.0       0.0       0.0       0.0       0.0
$
$
$ =============
$ CONTACT cards
$ =============
$
*CONTACT_AUTOMATIC_SURFACE_TO_SURFACE_ID
         1Impactor_Structure_Contact                                            
         4         3         0         0         0         0         1         1
       0.2       0.2       0.0       0.0      20.0         0       0.0       0.0
       0.0       0.0       0.0       0.0       0.0       0.0       0.0       0.0
$
$
$: Cross-reference summary for SET_SEGMENT 3
$:------------------------------------------
$: CONTACT 1
$
*SET_SEGMENT_GENERAL_TITLE
Impactor_Shells
         3       0.0       0.0       0.0       0.0
BOX                2         0         0       0.0       0.0       0.0       0.0
$
$
$: Cross-reference summary for SET_SEGMENT 4
$:------------------------------------------
$: CONTACT 1
$: CONTACT 2
$
*SET_SEGMENT_GENERAL_TITLE
Structure_Shell_Set
         4       0.0       0.0       0.0       0.0
BOX                3         0         0       0.0       0.0       0.0       0.0
$
*CONTACT_AUTOMATIC_SINGLE_SURFACE_ID
         2Structure_Self_Contact                                                
         4         0         0         0         0         0         1         1
       0.2       0.2       0.0       0.0       2.0         0       0.0       0.0
       0.0       0.0       0.0       0.0       0.0       0.0       0.0       0.0
         2       0.0         0       0.0       3.0         5         0         0
$
$
$
$ =========
$ SET cards
$ =========
$
$
*TITLE
Optimizer Verification Test Model
$
$
*END
